input/SIN/SIN/DS_ONS_072022_RV3D22/leve.pwf
TITU
ONS PDPM Julho 2022 - LEVE                                                      
DAGR
(AG (         D E S C R I C A O        )
  6 SUBMERCADOS DO SIN                   
(ID O (       Nome de Identificacao      )
  1   SUDESTE/CENTRO-OESTE                 
  2   SUL                                  
  3   NORDESTE                             
  4   NORTE                                
FAGR
99999
DOPC IMPR
(Op) E (Op) E (Op) E (Op) E (Op) E (Op) E (Op) E (Op) E (Op) E (Op) E
PERD L STEP L NEWT L LFDC L RCVG L RMON L FILE L SUBS L CONT L NOVO L
CELO L MFCT L AREG L STPO L VLCR L CPHS L
99999
DCTE
(Mn) ( Val) (Mn) ( Val) (Mn) ( Val) (Mn) ( Val) (Mn) ( Val) (Mn) ( Val) 
BASE   100. DASE   100. TEPA    .01 EXST    .04 TETP     5. TBPA     5.
TLPP     1. TEPR    .01 QLST    .04 TLPR    .01 TLPQ     2. TSBZ    .01
TSBA     5. ASTP    .05 VSTP     5. TLVC    .05 TLTC    .01 TSFR  .1E-7
ZMAX   500. TLPV     .5 VDVM   200. VDVN    40. TUDC   .001 TADC    .01
PGER    30. TPST    .02 VFLD    70. ZMIN  .0001 HIST    470 LFIT     10
ACIT    100 LFCV      1 DCIT     10 VSIT     10 LPIT     50 LFLP     10
PDIT     10 LCRT    200 LPRT     60 CSTP     5. ASDC     1.
ICIT     50 DMAX      5 FDIV     2. ICMN    .05 VART     5. TSTP     32
ICMV     .5 APAS    90. CPAR    70. VAVT     2. VAVF     5. VMVF    15.
VPVT     2. VPVF     5. VPMF    10. VSVF    20. VINF     1. VSUP     1.
TLSI     0. NDIR    20. STTR     5. TRPT   100. STIR     1. BFPO     1.
LFPO     .1 TLMT     0. TLMF     0. TLMG     0. PARS    10.            
99999
DBAR
(Num)OETGb(   nome   )Gl( V)( A)( Pg)( Qg)( Qn)( Qm)(Bc  )( Pl)( Ql)( Sh)Are(Vf)M(1)(2)(3)(4)(5)(6)(7)(8)(9)(10
   10 L1 VANGRA1UNE001 5 9501.33     -39.5-211. 414.        32. 15.5     2211000                  1                
   11 L1 VANGRA2UNE001 5 9501.46     -79.9-600. 600.        65. 31.5     2211000                  1                
   12 L1 VLCBARRUHE002 5 998-21.     -120.-270. 210.                     2041000                  1                
   13 L1 TLCBARRSIN002 5 981-22.     -142.-280. 140.                     2041000                  1                
   14 L1 VFUNIL-UHE001 5 990-16.      -12. -50.  50.                     2251000                  1                
   16 L1 VFURNASUHE002 5 991-26.     94.71-250. 250.                     1891000                  1                
   17 L1 TFURNASSIN005 5 952-27.     -60.6-320. 160.                     1891000                  1                
   18 L1 VITUMBIUHE002 5 958-31.     407.1-273. 300.                     1881000                  1                
   19 L1 TITUMBISIN004 5 963-36.     420.6-273. 300.                     1881000                  1                
   20 L1 VMARIMBUHE002 51010-13.     -31.7-320. 320.                     1881000                  1                
   21 L1 VMANSO-UHE001 5 950-7.5     -21.4 -20.  21.                     1371000                  1                
   22 L1 VM.MORAUHE002 51001-21.     -74.5-120. 126.                     1891000                  1                
   23 L1 TCBRAV-SIN000 51000-89.     140.3   0.   0.                     1491000                  1                
   24 L1 VM.MORBUHE001 5 950-18.     1.258  -6. 15.5                     2081000                  1                
   27 L  CCPAUL2-SP500 31000-9.7                                         2021000                  1                
   28 L1 VPCOLOMUHE001 5 964-3.9     -25.4-100. 100.                     2081000                  1                
   30 L1 VSCRU19UTE000 51005-13.     -82.1   0.   0.                     2241000                  1                
   31 L1 VSCRU13UTE000 5 962-13.     -11.7   0.   0.                     2241000                  1                
   32 L1 VSCRU16UTE000 51005-13.     -35.7   0.   0.                     2241000                  1                
   35 L1 VCORUMBUHE002 5 950-48.     49.26-120. 120.                     1481000                  1                
   36 L1 VS.MESAUHE001 5 950-89.     177.6-160. 160.                     1471000                  1                
   37 L1 TS.MESASIN001 5 950-92.     171.4-415. 287.                     1471000                  1                
   38 L1 NGRAJA2SIN001 51000-13.     -79.7-120. 200.                     2211000                  1                
   41 D1 TVITOR2SIN001 5 972-122      -15. -30.  60.                     2341000                  1                
   44 L1 NGRAJA1SIN001 51000-13.     -50.3-120. 200.                     2211000                  1                
   46 L  ECAMPOSCER345 51014-47.                                         2221096                  1                
   47 L1 TVITOR1SIN001 5 971-63.     10.12 -30.  60.                     2341000                  1                
   48 L1 TIBIUNASIN004 5 951-7.5     -875.-720.1200.    86               2041000                  1                
   50 L1 TTPRETOSIN001 51098-10.     -129.-180. 300.                     2011000                  1                
   52 L  EP.ACU--RJ345 51000-47.                                         2221000                  1                
   53 L1 QGNA1G-UTE000 51002-47.     207.7   0.   0.                     2221000                  1                
   54 L1 QGNA1V-UTE000 51002-47.      283.   0.   0.                     2221000                  1                
   55 L  FBALTO-CER230 51001-96.                                         1491000                  1                
   56 L  IIVAIP3-PR069OR10006.28                                         2011000                  1                
   57 L  IIVAIP2-PR069OR10006.26                                         201 960                  1                
   58 L  UIVAIP2-PR000 610006.26                                         201 960                  1                
   59 L  UIVAIP3-PR000 610006.28                                         2011000                  1                
   60 L  AF.IGUA-PR765 1100015.6                                         2011000                  1                
   61 L  CFZ-500-PR500 3100018.7                                         1011000                  2                
   62 L  AIV-FZ1CAP765 11000.431                                         2011000                  1                
   63 L  AIV-FZ2CAP765 11000.486                                         2011000                  1                
   64 L  AIV-FZ3CAP765 11000.699                                         2011034                  1                
   65 L  AIVAIPO-PR765 110006.58                                         2011000                  1                
   66 L  BIVAIPO-PR525 210126.33                                         1011000                  2                
   67 L  IIVAIP1-PR069OR10006.31                            .24   0.     2011000                  1                
   68 L  UIVAIP1-PR000 610006.32                                         2011000                  1                
   69 L  AIV-IT1CAP765 1100012.6                                         2011000                  1                
   70 L  AIV-IT2CAP765 1100012.6                                         2011000                  1                
   71 L  AIV-IT3CAP765 1100012.5                                         2011050                  1                
   72 L  AITABER-SP765 11000 .83                                         2011000                  1                
   73 L  AIT-TP1CAP765 110007.91                                         2011000                  1                
   74 L  AIT-TP2CAP765 110007.91                                         2011000                  1                
   75 L  AIT-TP3CAP765 110007.58                                         2011000                  1                
   76 L  ATPRETO-SP765 11000-5.6                                         2011000                  1                
   77 L  CTPRETO-SP500 31045-6.7                                         2021000                  1                
   78 L  ETPRETO-SP345 5 971-9.6                                         2041000                  1                
   79 L  ITPRETO-SP069OR1000-6.7                                         2011000                  1                
   80 L  UTPRET3-SP000 61000-6.7                                         2011000                  1                
   81 L  UTPRET4-SP000 61000-10.                                         2011000                  1                
   82 L  ETPRET2-SP345 51013-9.4                                         2041000                  1                
   84 L  GRESEN2-RJ138 51014-11.                                         2251000                  1                
   85 L  CFOZ500-PR500 31000-.24                            60.   0.     2411000                  1                
   86 L1 EIBIUNA-SP345 51030-7.5     -509.-99999999.                     2041000                  1                
   87 L  CRESEND-RJ500 31000-9.8                                         2211000                  1                
   90 L  EVIANA--ES345 51000-63.                                         2341010                  1                
   91 L  NVIANA1-ES013 51000-63.                                         2341010                  1                
   92 L  CSB-SM1CAP500 31000-64.                                         1471000                  1                
   93 L  CSB-SM2CAP500 31000-69.                                         1471000                  1                
   94 L  CSB-SM3CAP500 31000-68.                                         1471000                  1                
   95 L  NVIANA2-ES013 51000-63.                                         2341010                  1                
   96 L  NVIANA3-ES013 51000-63.                                         2341000                  1                
   98 L  GJACAR1-RJ138 5 993-15.                                         2241000                  1                
   99 L  BARARAQ-SP525 21000-3.3                                         2021000                  1                
  100 L  CMARIMB-MG500 31045-15.                                         1881000                  1                
  101 L  CARARAQ-SP500 31000-3.3                                         2021000                  1                
  102 L  CP.CALD-MG500 31000-12.                                         1881000                  1                
  103 L  CCAMPIN-SP500 31000-7.3                                         2021000                  1                
  104 L  CC.PAUL-SP500 31000-11.                                         2021000                  1                
  105 L  CANGRA--RJ500 31000-5.5                                         2211000                  1                
  106 L  CADRIAN-RJ500 31000-11.                                         2211000                  1                
  107 L  CGRAJAU-RJ500 31000-12.                                         2211000                  1                
  108 L  CS.JOSE-RJ500 31000-12.                                         2211000                  1                
  109 L  CBYPSAD-RJ500 31000-11.                                         2211000                  1                
  110 L  UGR1T52-RJ000 61000-13.                                         2211000                  1                
  112 L  CBA-IB1-PR500 31000.366                                         1011000                  2                
  113 L  CBA-IB2-PR500 31000.366                                         1011000                  2                
  114 L  CBA-IT1-PR500 31000.391                                         1011000                  2                
  115 L  CBA-IT1CAP500 310007.53                                         2021000                  1                
  116 L  GIMBTAP-RJ138 51000-22.                                         2261000                  1                
  118 L  UBANDT4-GO000 51000-51.                                         1481000                  1                
  119 L  XBANDTE-GO013 51000-51.                                         1481000                  1                
  120 L  EP.CALD-MG345 51018-18.                                         1891000                  1                
  121 L  UPCAT51-MG000 61000-19.                                         1881000                  1                
  122 L  CIBIUNA-SP500 31030-5.1                                         2021000                  1                
  123 L  ECAMPIN-SP345 51019-11.                                         2041000                  1                
  124 L  UCAMPI1-SP000 61000-12.                                         2021000                  1                
  125 L  CIB-BA1CAP500 31000-11.                                         2021000                  1                
  126 L  EGUARUL-SP345 51000-13.                                         2041000                  1                
  127 L  EMO-RL1-SP345 51000-11.                                         2041000                  1                
  128 L  EMO-RL2-SP345 51000-11.                                         2041015                  1                
  129 L  EMOGI---SP345 51000-12.                                         2041000                  1                
  130 L  CIB-BA2CAP500 31000-11.                                         2021000                  1                
  131 L  EM.MORA-MG345 51000-21.                                         1891000                  1                
  133 L  UADRT1A-RJ000 61000-21.                                         2221030                  1                
  134 L  ELCBARR-SP345 51000-22.                                         2041000                  1                
  135 L  UJACT1A-RJ000 61000-15.                                         2221000                  1                
  136 L  EFURNAS-MG345 51000-27.                                         1891000                  1                
  137 L  UJACT2A-RJ000 61000-15.                                         2221000                  1                
  138 L  EITUTIN-MG345 51000-30.                                         1891000                  1                
  139 L  UADRT51-RJ000 61000-20.                                         2211004                  1                
  140 L  EADRIAN-RJ345 5 998-18.                                         2221000                  1                
  141 L  UADRT53-RJ000 61000-20.                                         2211000                  1                
  142 L  UADRT55-RJ000 61000-22.                                         2211000                  1                
  143 L  UADRT2B-RJ000 61000-21.                                         2221020                  1                
  144 L  EJACARE-RJ345 51000-16.                                         2221000                  1                
  145 L  UADRT1B-RJ000 61000-21.                                         2221000                  1                
  146 L  UADRT2A-RJ000 61000-21.                                         2221000                  1                
  147 L  ECAMPOS-RJ345 51000-47.                            27.  5.5     2221000                  1                
  148 L  UCAMPO1-RJ000 61000-48.                                         2221000                  1                
  149 L  EVITORI-ES345 51000-63.                                         2341000                  1                
  150 L  UVITAT1-ES000 61000-65.                                         2341000                  1                
  152 L  UVITAT2-ES000 61000-65.                                         2341000                  1                
  153 L  UVITAT3-ES000 61000-65.                                         2341000                  1                
  154 L  NVITAT2-ES013 51000-65.                                         2341000                  1                
  155 L  NVITAT3-ES013 51000-65.                                         2341000                  1                
  156 L  NVITAT4-ES013 51000-65.                                         2341000                  1                
  157 L  ECAMPCA-RJ345 51000-47.                                         2221000                  1                
  158 L  UVITAT4-ES000 61000-65.                                         2341000                  1                
  159 L  XJA-R30-RJ013 51000-15.                                         2221000                  1                
  160 L  XJB-R60-RJ013 51000-15.                                         2221000                  1                
  161 L  FMO-FCE-SP230 51011-12.                                         2051000                  1                
  162 L  UCAMAT1-SP000 61000-12.                                         2041000                  1                
  163 L  XCAMPI--SP013 51000-12.                                         2041000                  1                
  164 L  UPCAT02-MG000 61000-18.                                         1891000                  1                
  165 L  NP.CAL--MG013 51000-18.                                         1891000                  1                
  166 L  UJACT1B-RJ000 61000-15.                                         2221000                  1                
  167 L  XJA-R60-RJ013 51000-15.                                         2221000                  1                
  169 L  GSJOSE2-RJ138 51012-16.                                         2241000                  1                
  170 L  GP.CALD-MG138 51012-18.                                         1961000                  1                
  171 L  GCAMPIN-SP138 5 987-12.                           1.01   0.     2071000                  1                
  172 L  GIMBARE-RJ138 51000-18.                                         2261000                  1                
  173 L  GADRIAN-RJ138 51006-21.                                         2261000                  1                
  174 L GCR.LEAO-RJ138 51000-44.                                         2281000                  1                
  175 L GCCAMPOS-RJ138 51003-48.                            .25   0.     2291000                  1                
  176 L  UCAMPI2-SP000 61000-12.                                         2021000                  1                
  177 L  GVITORI-ES138 51006-65.                                         2361000                  1                
  178 L  GGRAJAU-RJ138 51004-13.                                         2241000                  1                
  179 L  UGR2T54-RJ000 61000-13.                                         2211000                  1                
  180 L  GJACAR2-RJ138 5 993-15.                                         2241000                  1                
  181 L  GANGDEF-RJ138 5 988-13.        0.                               2211037                  1                
  182 L  GFUNIL--RJ138 51000-18.                                         2251000                  1                
  183 L  GC.PAUL-SP138 51043-12.                                         2141000                  1                
  184 L GCS.CRUZ-RJ138 51000-13.                                         2241000                  1                
  185 L  GANGRA--RJ138 51000-1.5        0.                   3.   0.     2251000                  1                
  186 L  NCAMPI2-SP013 51000-12.                                         2021000                  1                
  187 L  GM.MORA-MG138 51023-21.                                         1951000                  1                
  189 L  UBGERT1-DF000 61000-79.                                         1591000                  1                
  190 L  GP.COL--MG138 51000-4.7                                         2081000                  1                
  192 L  NCM1CAP-RJ013 51000-48.                                         2221000                  1                
  194 L  NADRT55-RJ013 51000-22.                                         2211000                  1                
  195 L  NADRT53-RJ013 51000-20.                                         2211000                  1                
  196 L  NCAMPI1-SP013 51000-12.                                         2021000                  1                
  197 L  NADRT51-RJ013 51000-20.                                         2211004                  1                
  198 L  NPCALAT-MG013 51000-19.                                         1881000                  1                
  199 L  NVITAT1-ES013 51000-65.                                         2341000                  1                
  200 L  UUCAMP1-RJ000 61000-50.                                         2291000                  1                
  201 L1 VRSIL-1UTE001 51012-50.     1.541   0.   0.       1.16   0.     2291000                  1                
  202 L  UUCAMP2-RJ000 61000-50.                                         2291000                  1                
  203 L1 VRSIL-2UTE001 51012-50.     1.541   0.   0.       1.16   0.     2291000                  1                
  204 L  NADRT1B-RJ013 51000-21.                                         2221000                  1                
  205 L  NADRT2A-RJ013 51000-21.                                         2221000                  1                
  206 L  NADRT2B-RJ013 51000-21.                                         2221020                  1                
  208 L  NBGERT1-DF013 51000-79.                                         1591000                  1                
  209 L  XADRIAN-RJ013 51000-21.                                         2221030                  1                
  210 L  CITUMBI-MG500 31000-36.                                         1881000                  1                
  211 L  UCAMPO2-RJ000 61000-48.                                         2221000                  1                
  212 L  NCM2CAP-RJ013 51000-48.                                         2221000                  1                
  213 L  EMARIMB-MG345 51000-20.                                         1891000                  1                
  214 L  UMARIMB-MG000 61000-21.                                         1881000                  1                
  216 L  EP.COL--MG345 51000-25.                                         1891000                  1                
  217 L  EITUMBI-MG345 51000-39.                                         1891000                  1                
  218 L  EBANDEI-GO345 51000-55.                                         1481000                  1                
  219 L  EB.SUL--DF345 51000-77.                                         1581000                  1                
  220 L  ECORUMB-GO345 51000-49.                                         1481000                  1                
  221 L  LB.GERA-DF034 51006-79.                                         1601000                  1                
  222 L  UBSULT2-DF000 61000-77.                                         1581000                  1                
  223 L  UBANDT1-GO000 51000-51.                                         1481000                  1                
  224 L  UBANDT2-GO000 51000-51.                                         1481000                  1                
  225 L  FITUMBI-MG230 51006-38.                                         1901000                  1                
  226 L  FBANDEI-GO230 51000-52.                                         1491000                  1                
  227 L  FB.GERA-DF230 51000-77.                                         1591000                  1                
  228 L  FB.SUL--DF230 51000-77.                                         1591000                  1                
  229 L  FB.ALTO-GO230 51010-96.                                         1491000                  1                
  230 L  FS.MESA-GO230 51015-92.                                         1491000                  1                
  231 L  FR.VERD-GO230 51000-33.                                         1491000                  1                
  232 L  NBSULT2-DF013 51000-77.                                         1581000                  1                
  233 L  CSAMAMB-DF500 31000-80.                                         1571000                  1                
  234 L  ESAMAMB-DF345 51028-77.                                         1581000                  1                
  235 L  CS.MESA-GO500 31000-92.                                         1471000                  1                
  236 L  GB.SUL--DF138 51004-80.                            .81   0.     1601000                  1                
...
99999
DLIN
(De )d O d(Pa )NcEPM( R% )( X% )(Mvar)(Tap)(Tmn)(Tmx)(Phs)(Bc  )(Cn)(Ce)Ns(Cq)(1)(2)(3)(4)(5)(6)(7)(8)(9)(10
   27        87 1     .051  .782  66.5                          18552337  2337                                
   27      1503 1     .052  .792  66.5                          18552337  2337                                
   27      3010 2     .189 3.158709.66                          24423464  3464                                
   27      3383 1     .014  .20530.353                          27282728  2728                                
   38       17954         3.0195       1.05                     200.200.  200.                                
   44       11052             3.       1.05                     200.200.  200.                                
   50        81 4          2.498         1.                     500.500.  500.                                
   52       147 1      .16 1.64627.714                          10581539  1539                                
   52       147 2      .161.646327.714                          10581539  1539                                
   53        52 1           2.97         1.                     99999999  370.                                
   54        52 1           2.18         1.                     99999999  550.                                
   56        59 1         3.3852         1.                     550.550.  1650                                
   57        58 1         3.6218         1.                     550.550.  550.                                
   60        62 1     .076  1.84 927.8                          41334174  4174                                
   60        63 1     .076  1.85 929.1                          41334174  4174                                
   60        64 1     .078  1.89954.57                          41334174  4174                                
   61        60 1 T         .622       1.05                     16501815  1880                                
   61        60 2 T        .6424       1.05                     16501815  1880                                
   61        60 3 T         .623       1.05                     16501815  1880                                
   61        60 4 T        .6226       1.05                     16501815  1880                                
   61        60 5           .623       1.05                     16501980  2309                                
   61     43421 1D    .116 1.999 245.8                          30963622  3622                                
   61     43422 2D    .116 1.999 245.8                          30963622  3622                                
   65        58 1          .8224       .993                     16501815  1815                                
   65        59 1          .7734         1.                     16501831  1897                                
   65        62 1          -.749                                36844174  4174                                
   65        63 2          -.749                                36844174  4174                                
   65        64 3          -.749                                36844174  4174                                
   65        68 1           .697       .993                     16501815  1995                                
   65        69 1          -.778                                36844174  4174                                
   65        70 2          -.778                                36844174  4174                                
   65        71 3          -.778                                36844174  4174                                
   66        58 1         -.1703       .949 .8381.053         6616501815321815                                
   66        59 1         -.1183       .949 .8381.053         6616501831321897                                
   66        68 1         -.0303       .949 .8381.053         6616501815321995                                
   67        68 1         3.5455         1.                     550.550.  550.                                
   72        69 1     .064  1.53  760.                          41334174  4174                                
   72        70 1     .063  1.53 755.7                          41334174  4174                                
   72        71 1     .064  1.54 762.9                          41334174  4174                                
   72        73 1          -.915                                36844174  4174                                
   72        74 2          -.915                                36844174  4174                                
   72        75 3          -.915                                36844174  4174                                
   76        73 1     .074  1.75 877.5                          41334174  4174                                
   76        74 1     .072  1.75  873.                          41334174  4174                                
   76        75 1 T   .076  1.79 898.2                          41334174  4174                                
   76        80 3           .697       .993                     16501815  1995                                
   76        81 4         1.0276         1.                     15001650  1650                                
   77        76 1          .6739        .88  .88 1.16         7716501650321650                                
   77        76 2          .6552        .88  .88 1.16         7716501815321815                                
   77        80 3         -.0303        .88  .88 1.16         7716501815321995                                
   77       104 1     .162   2.5 216.6                          18552337  2337                                
   77       598 1 T   .107  1.44 133.4                          18552252  2252                                
   77      3383 1     .115 1.712259.62                          27282728  2728                                
   78        76 5          .9007       .859 .8591.115         7815001650321650                                
   78        81 4         -.1069       .859 .8591.115         7815001650321650                                
   78        82 1           1.26                                450.450.  450.                                
   78        86 2 T   .187 2.602  60.1                          12801613  1613                                
   78       449 1      .07   .6612.845                          11841392  1392                                
   78       449 2      .07   .6612.845                          11841392  1392                                
   78       464 3 T    .11   .9917.073                          912.1103  1103                                
   78       471 1    .0954 .7982 14.39                          11841392  1184                                
   78       471 2    .0954 .7982 14.39                          11841392  1184                                
   79        80 3         3.5455         1.                     550.550.  550.                                
   82        76 6          .8916      1.011 .8591.115         8215001650321650                                
   82        76 7          .8714      1.011 .8591.115         8215001800321800                                
   82        86 1 T   .187 2.602  60.1                          12801613  1613                                
   82       449 3      .07   .6612.845                          13501350  1350                                
   82       449 4      .07   .6612.845                          13501350  1350                                
   84      1780 1       .7  1.78  .454                          120.120.  120.                                
   84      1780 2       .7  1.78  .454                          120.120.  120.                                
   84     11797 1      .32  .815 .2079                          122.130.  122.                                
   84     21797 1      .32  .815 .2079                          122.130.  122.                                
   84     42417 1           -.85      .9999 .9051.048         84300.360.32300.                                
   85      1103 3 T  .0056 .096910.041                          27283377  3377                                
   85      1103 4 T  .0054 .0936 9.691                          27283377  3377                                
   86        48 1         .71475      1.013                     10501050  1050                                
   86       122 1         1.7111      1.048 .8951.048       -122750.750.32750.                                
   86       122 2         1.7042      1.048 .8951.048       -122750.750.32750.                                
   86       122 3         1.6718      1.048 .8951.048       -122750.900.321050                                
   86       488 1    .09481.4987 41.91                          20202390  2390                                
   86       488 2    .09481.4987 41.91                          20202390  2390                                
   87     42417 1           4.85         1.                     300.360.  300.                                
   87     42426 1         8.3333         1.                     150.180.  150.                                
   87     42428 1         11.458         1.                     120.144.  120.                                
   90      2590 1            .01                                370.370.  370.                                
   90      2608 1         4.8466      1.005                     225.270.  225.                                
   90      2618 1         4.8611      1.005                     225.270.  225.                                
   90      2628 1         4.6496      1.005                     225.270.  225.                                
   90      3032 1     .225 2.46841.546                          747.747.  747.                                
   91      2608 1         9.7001         1.                      75. 75.   75.                                
   95      2618 1         9.7726         1.                      75. 75.   75.                                
   96      2628 1         9.8304         1.                      75. 75.   75.                                
   98       135 1         -.2333      .9827   .9  1.1         98225.270.  225.                                
   98       166 1         -.3898      .9827   .9  1.1         98225.292.  225.                                
   98       178 1      .88  5.03 1.428                          218.264.  218.                                
   98      1429 1     .6723.8288 1.088                          194.247.  194.                                
   98      3237 1    .0811    .6 .7262                          538.648.  538.                                
   98      3238 1    .0811    .6 .7262                          538.648.  538.                                
   98      3958 1D     .54  3.06   .87                          218.264.  218.                                
   99       101 1            .01       .952                     20002000  2000                                
   99       556 1 T   .182 2.807 350.1                          20012001  2001                                
  100        20 1           1.58         1.                     16201620  1620                                
  100       214 1          2.979        .95  .95 1.05        100560.717.32560.                                
  100       535 1 T   .153   2.4 203.8                          17321732  1732                                
  100      3110 1    .12022.5333160.42                          19922390  2390                                
  100      4598 1     .006  .087   7.4                          18552337  2337                                
  100      4598 2     .006  .086   7.2                          18552337  2337                                
  100      4598 3    .0064 .08247.1767                          19922390  2390                                
  101       102 1     .156  2.46 208.5                          18552337  2337                                
  101       103 1     .152  2.39 202.6                          18552337  2337                                
  102       12151           2.93       1.05                     560.717.  717.                                
  102      1503 1     .129 1.998 167.7                          18552337  2337                                
  103       12451         2.9458       1.05                     560.717.  717.                                
  103       17654         2.9116       1.05                     560.728.  728.                                
  103       609 1      .06   .95 76.58                          18552337  2337                                
  103      6609 1     .024  .372  31.3                          18552337  2337                                
  103      6609 2     .017  .26738.833                          24773464  3464                                
  104        27 1D    .001  .001                                99999999  9999                                
  104       598 1     .075  1.15  98.9                          18552252  2252                                
  104       609 1      .15  2.36190.12                          18552337  2337                                
  104      3010 1     .189 3.158709.66                          24423464  244.                                
  104      9626 1       .1  1.68252.04                          24732598  2598                                
  105        10 1           1.97      1.075                     777.777.  777.                                
  105        11 1            .95      1.075                     14771477  1477                                
  105        27 1     .093 1.456122.54                          18552337  2337                                
  105      9601 1     .092 1.363 115.3                          18552337  1855                                
  105      9608 1     .101 1.518 127.8                          18552337  2337                                
  106       108 1     .019  .389  42.1                          25982598  2598                                
  106       109 1           .001                                24732598  2473                                
  106       139 1          3.103       1.05                     560.644.  560.                                
  106       141 1         3.0419       1.05                     560.672.  784.                                
  106       142 1         4.1368       1.05                     560.716.  560.                                
  107       11052          2.141       1.05                     600.720.  840.                                
  107       17954           2.15       1.05                     600.720.  840.                                
  107     4240756          2.142       1.05                     600.720.  840.                                
  107     4240858          2.114       1.05                     600.720.  840.                                
  109       107 1     .033  .673  72.6                          25982598  2598                                
  109      9626 1      .01   .19  29.7                          24732598  2598                                
  112       895 1            .01       1.05                     12992252  2252                                
  113       895 1            .01       1.05                     12992252  2252                                
  114       895 1     .001  .001       1.05                     29103668  3668                                
  115      6609 1     .262 4.249  658.                          29093667  3667                                
  116       172 1D    .125  .722  .207                          145.145.  145.                                
  116       173 1 T   .625 3.608 1.033                          153.193.  146.                                
  119       118 4         15.049         1.                      75. 75.   75.                                
  120       12151          -.526      1.0091.009 1.11        120560.717.10717.                                
  120       123 1     .357  3.95  66.7                          853.1075  1075                                
  120       164 2         7.5449       .957                     150.150.  150.                                
  120       697 1     .394  4.39 74.85                          853.1075  1075                                
  122       125 1         -2.051                                12992251  2251                                
  122       130 1         -2.051                                12992251  2251                                
  122      6609 1     .081 1.248 105.1                          18552337  2337                                
  123       12451          -.528      1.057  .95 1.11        123560.717.17717.                                
  123       162 1         5.5633         1.                     149.176.  176.                                
  123       17654         -.4129      1.057  .95 1.11        123560.728.17728.                                
  125       112 1 T   .308 3.958 444.8                          12992252  2251                                
  126        86 1     .108  1.83  51.2                          17072150  2150                                
  126        86 2     .108  1.83  51.2                          17072150  2150                                
  126       120 1 T     .6  5.95  92.8                          776.977.  977.                                
  126       120 2 T   .606  6.02  93.8                          776.977.  977.                                
  126       123 1 T    .25  2.76  46.5                          853.1075  1075                                
  126       442 1       .1   .99  15.2                          776.977.  977.                                
  127       129 1            .76                                912.1103  1103                                
  128       129 1            .76                                912.1103  1103                                
  129       442 1 T    .09   .84 13.38                          776.977.  977.                                
  130       113 1     .308 3.958 444.8                          12992252  2251                                
  131        22 1         3.6933         1.                     378.378.  378.                                
  131      3012 1     .038  .427   6.7                          853.1075  853.                                
  134        12 1           1.78       .999                     11801180  1180                                
  134        13 1           2.67       .999                     99999999  9999                                
  134       120 1     .556  6.16 105.3                          853.1075  853.                                
  134       120 2     .553  6.13 107.7                          853.1075  853.                                
  134       396 1     .318  3.51  59.2                          853.1075  853.                                
  134      3012 1     .071  .755  12.8                          853.1075  853.                                
  134      3012 2     .071  .764  12.9                          853.1075  853.                                
  136        16 1          1.536         1.                     12801280  1280                                
  136        17 1           3.84         1.                     99999999  9999                                
  136       120 1     .436   4.3  66.6                          776.977.  776.                                
  136       120 2     .436   4.3  66.6                          776.977.  776.                                
  136       131 1     .358 3.383   52.                          776.956.  717.                                
  136       138 1     .649  6.46 100.8                          776.977.  776.                                
  136       138 2     .558  6.19 105.7                          853.1075  853.                                
  136       367 1      .22  2.18  33.4                          776.977.  776.                                
  136       367 2 T   .179 1.78434.299                          11321132  1132                                
  136      4360 1D    .461 5.152  83.6                          853.1075  853.                                
  138       331 1     .423 4.39973.673                          11591159  1159                                
  140       133 1         4.6778      1.004                     225.225.  225.                                
  140       138 1     .652   6.5 101.4                          776.896.  776.                                
  140       138 2     .558  6.19 105.7                          853.896.  853.                                
  140       139 1          -.632      .9821  .95 1.11        140560.644.17560.                                
  140       141 1          -.669      .9821  .95 1.11        140560.672.17784.                                
  140       142 1         -1.504      .9821  .95 1.11        140560.716.17560.                                
  140       143 1         4.6867      1.004                     225.270.  315.                                
  140       144 1      .11 1.251 19.36                          776.956.  776.                                
  140       145 1         4.6563      1.004                     225.270.  315.                                
  140       146 1         4.6651      1.004                     225.270.  315.                                
  140      1781 1     .298 3.328  57.7                          853.1075  853.                                
  140      3966 1     .491 5.486  95.1                          853.1075  853.                                
  140      9607 1D    .291 2.98654.455                          853.1075  1075                                
  140      9609 1     .075  .822 13.76                          853.1075  1075                                
...
(Flexibilizado para convegencia
 4562      4568 2           39.5      .9559   .9  1.1      -7542 31. 36.17 30.                                
 4562      4569 1         30.515      .9559   .9  1.1      -7542 30. 36.17 30.                                
 4562      4582 1   1.19567.054613.196                          668.842.  842.                                
 4562      4582 2    1.196 7.084 13.95                          279.349.  279.                                
 4562      4667 3           41.2      .9559   .9  1.1      -7542 30. 36.17 30.                                
 4563      4495 1     .223 3.811536.76                          25983274  2598                                
 4565      4496 3         -1.515                                17072561  1707                                
 4565      4497 2         -1.629                                17072561  1707                                
 4565      4563 1 T       -1.629                                17072561  1707                                
 4565      4599 1          11.07      1.096   .9  1.1      -4599120.168.21120.                                
 4565      4665 1           .001                                300.300.  300.                                
 4569      7542 1         9.6916         1.                      30. 31.   31.                                
 4570      2939 1         3.6402      1.065   .9  1.1      -4571400.480.32400.                                
 4570      4531 1     .166 2.512 227.4                          24683031  2468                                
 4570      4531 2     .166 2.512 227.4                          24683031  2468                                
 4570      4571 2          3.293      1.067   .9  1.1      -4571400.480.32400.                                
 4570      4571 3          3.308      1.067   .9  1.1      -4571400.480.32400.                                
 4570      4571 4          3.308      1.067   .9  1.1      -4571400.480.  400.                                
 4571       766 1      .24 2.378  9.55                          637.809.  637.                                
 4571       766 2      .24 2.378  9.55                          637.809.  637.                                
 4571      2939 1          -.338         1.                     400.480.  400.                                
 4571      2992 1     1.28  7.65  14.2                          227.322.  227.                                
 4571      3714 1    .1889 1.886 7.356                          637.809.  637.                                
 4573      4519 1         13.178         1.                      75. 90.   75.                                
 4573      4562 1 T  .8407 4.957 9.261                          266.335.  266.                                
 4573      4779 2      .77 13.19         1.                      75. 90.   75.                                
 4574      4565 3          -1.92                                16072411  1607                                
 4577      4519 1         21.105         1.                      15. 15.   15.                                
 4578      4565 1 T       -2.064                                16072411  1607                                
 4579      4565 2         -2.064                                16072411  1607                                
 4581      4580 1          15.17         1.                      33. 33.   33.                                
 4582      4580 1           8.33         1.                     100.120.  100.                                
 4582      4584 1         8.5614         1.                     100.120.  100.                                
 4582      4589 1           8.85         1.                     100.120.  100.                                
 4582      4945 1          -.415         1.   .9  1.1       4582400.480.32480.                                
 4582     44446 2          -.388      .9835   .9  1.1       4582400.480.32480.                                
 4583      3550 1     .354 1.213  .336                          120.150.  120.                                
 4583      4580 1           -.62      1.016   .9  1.1       4583100.120.17100.                                
 4583      4584 1         -.7114      1.016   .9  1.1       4583100.120.17100.                                
 4583      4589 1           -.55      1.016   .9  1.1       4583100.120.17100.                                
 4583      4933 1    1.037 3.599 .9963                          122.153.  122.                                
 4583      4933 2    1.037 3.599 .9963                          122.153.  122.                                
 4586      4589 1          14.55         1.                      33. 33.   33.                                
 4587      4584 1         15.105         1.                      33. 33.   33.                                
 4588      4517 3      .16  2.56364.66                          18712058  2806                                
 4590      4573 1          40.33      1.075   .9  1.1       4590 33. 46.17 33.                                
 4591      4517 1     .215 3.295292.89                          15121662  2268                                
 4592        21 1           19.2      1.025                     240.240.  240.                                
 4592      4542 1       1.  6.16 11.73                          239.239.  239.                                
 4593      4533 1 T   .138 1.219   .65                          478.478.  478.                                
 4593      4596 1 T        3.764         1.                     358.358.  358.                                
 4593      4597 1 T        6.481         1.                     208.208.  208.                                
 4593      4713 1 T    .36  2.34  1.24                          166.384.  166.                                
 4593      4733 1 T    .53  3.45  1.82                          166.382.  166.                                
 4594      4520 1           17.8         1.                     185.185.  185.                                
 4594      4522 1 T   2.62 12.58 23.22                          233.233.  233.                                
 4595      4517 2      .16  2.55375.65                          18712058  2806                                
 4598       101 1      .18 2.761 236.4                          18552337  2337                                
 4598       101 2      .18 2.766 236.8                          18552337  2337                                
 4598      4531 1     .217 3.729512.85                          25983274  3274                                
 4598      4531 2     .217 3.729512.85                          25983274  3274                                
 4599      4684 1   5.561624.07947.116                          223.315.  223.                                
 4600      4606 1     .211  .583  .194                          160.160.  160.                                
 4601      4638 1 T        45.45         1.                      22. 22.   22.                                
 4601      4642 1    1.144 2.839  .709                           94.122.   90.                                
 4602      4605 1            35.         1.                     99999999  9999                                
 4602      4643 1    2.576 7.346 1.778                          100.120.  100.                                
 4606      4603 1      .06   .13   .04                          127.127.  127.                                
 4606      4623 1 T  1.478  4.08 1.357                          160.160.  160.                                
 4607      4645 1    15.07  42.2   .07                           20. 25.   20.                                
 4607      4647 1     4.15  8.58  .013                           20. 25.   20.                                
 4607      4649 1           116.         1.                      20. 25.   20.                                
 4607      4697 1         138.46         1.                       5.  5.    5.                                
 4607      4698 1         138.46         1.                       5.  5.    5.                                
 4610      4602 1    1.233 3.517   .85                           20. 25.   20.                                
 4610      4609 1            46.         1.                      20. 25.   20.                                
 4611      4513 1       3.  7.75  1.86                           80.100.   80.                                
 4611      4612 1 T   .072  .276   .07                           80. 96.   29.                                
 4612      4617 1          26.67         1.                      30. 40.   25.                                
 4613      4615 1     2.28  51.1      .9747   .9  1.1      -4615 25. 25.17 25.                                
 4616      4611 1     7.5722.094 5.342                          100.100.  100.                                
 4619      4613 1     .031  .076  .019                           80.100.   80.                                
 4619      4623 1 T   7.83 19.11 4.881                           94.122.   90.                                
 4620      4631 1            40.         1.                      25. 30.   25.                                
 4622      4768 1   4.128672.923       1.01   .9  1.1      -4768 12. 15.17 15.                                
 4622      4778 1      2.2  49.3      .9794   .9  1.1      -4778 30. 30.17 30.                                
 4623      3536 1   12.40323.844 6.276                           88.110.   88.                                
 4623      3568 1     .501 1.014  .253                           88.110.  110.                                
 4623      4528 1          -.579      .9811   .9  1.1       4623100.120.17100.                                
 4623      4529 1           -.33      .9811   .9  1.1       4623100.120.17100.                                
 4623      4539 1          -.584      .9811   .9  1.1       4623100.140.17100.                                
 4623      4625 1      3.1 12.01      .9734  .85 1.05      -4625 20. 20.17 20.                                
 4623      4626 1      2.4 48.78       .976   .9  1.1      -4626 25. 25.17 25.                                
 4623      4627 1     2.08 46.45      .9577   .9  1.1      -4627 25. 25.17 25.                                
 4623      4629 1          -.824      .9811   .9  1.1       4623100.140.17100.                                
 4623      4633 1    1.948 3.744 1.056                           88.110.   88.                                
 4623      4661 1     2.26 50.65      1.006   .9  1.1      -4661 30. 30.17 30.                                
 4623      7767 1    3.807 7.505 1.849                           84.105.   84.                                
 4623      7768 1    8.28231.509 8.583                          136.170.  136.                                
 4624      4623 1     1.25   3.2   .77                           80.100.   80.                                
 4626      7569 1   337.06413.45  .669                           24. 30.   24.                                
 4630      4629 1         14.645         1.                      30. 30.   30.                                
 4633      4635 1     2.29 51.25      .9464   .9  1.1      -4635 25. 25.17 25.                                
 4633      4636 1     2.12  47.5      .9472  .85 1.05      -4636 25. 25.17 25.                                
 4633      4774 1     2.29 51.27         1.   .9  1.1      -4774 30. 30.17 30.                                
 4637      3537 1   44.41954.485  .088                           17. 17.   17.                                
 4637      7579 1    55.86116.45  .191                           24. 30.   30.                                
 4641      4601 1    1.144 2.839  .709                           94.100.   90.                                
 4642      4533 1 T   3.83 10.22  2.46                           94.122.   90.                                
 4643      4641 1      6.6 17.59  4.21                           94.122.   90.                                
 4643      4645 1      2.2  50.2      1.007   .9  1.1      -4645 25. 25.17 25.                                
 4643      4646 1     5.19 83.94      .9878  .88 1.08      -4646 12. 12.17 12.                                
 4645      4689 1   182.95119.92   .17                           11. 13.   11.                                
 4646      4687 1D    9.49 107.2         1.                       9.  9.    9.                                
 4647      4650 1           87.5         1.                      10. 13.   10.                                
...